<routes>
        <!-- Multiple vehicle types with different shapes -->
        <vType id="standard_car" accel="0.8" decel="4.5" sigma="0.5" length="5" minGap="2.5" maxSpeed="16.67" guiShape="passenger"/>
        <vType id="sedan" accel="0.8" decel="4.5" sigma="0.5" length="4.8" minGap="2.5" maxSpeed="16.67" guiShape="passenger/sedan"/>
        <vType id="hatchback" accel="0.8" decel="4.5" sigma="0.5" length="4.3" minGap="2.3" maxSpeed="16.67" guiShape="passenger/hatchback"/>
        <vType id="wagon" accel="0.8" decel="4.5" sigma="0.5" length="5.1" minGap="2.5" maxSpeed="16.67" guiShape="passenger/wagon"/>
        <vType id="van" accel="0.7" decel="4.0" sigma="0.5" length="5.5" minGap="2.8" maxSpeed="15.67" guiShape="passenger/van"/>

        <!-- Straight routes -->
        <route id="west_to_east" edges="E0 -E1 -E2 E3" />
        <route id="east_to_west" edges="-E3 E2 E1 -E0" />
        <route id="north_to_south" edges="-E4 -E5" />
        <route id="south_to_north" edges="E5 E4" />
        
        <!-- Right turn routes -->
        <route id="west_to_north" edges="E0 -E1 E4" />
        <route id="north_to_east" edges="-E4 -E2 E3" />
        <route id="east_to_south" edges="-E3 E2 -E5" />
        <route id="south_to_west" edges="E5 E1 -E0" />
        
        <!-- Left turn routes -->
        <route id="west_to_south" edges="E0 -E1 -E5" />
        <route id="north_to_west" edges="-E4 E1 -E0" />
        <route id="east_to_north" edges="-E3 E2 E4" />
        <route id="south_to_east" edges="E5 -E2 E3" />
    <vehicle id="veh_0" type="wagon" route="west_to_north" depart="0" color="0.60,0.40,0.20" />
    <vehicle id="veh_1" type="van" route="east_to_north" depart="0" color="0.00,0.50,0.00" />
    <vehicle id="veh_2" type="standard_car" route="east_to_south" depart="0" color="1.00,0.80,0.00" />
    <vehicle id="veh_3" type="sedan" route="north_to_south" depart="1" color="1.00,0.80,0.00" />
    <vehicle id="veh_4" type="standard_car" route="south_to_west" depart="1" color="0.00,0.00,0.00" />
    <vehicle id="veh_5" type="hatchback" route="north_to_east" depart="1" color="0.50,0.00,0.50" />
    <vehicle id="veh_6" type="sedan" route="west_to_east" depart="2" color="1.00,0.50,0.00" />
    <vehicle id="veh_7" type="wagon" route="south_to_west" depart="3" color="0.00,0.00,0.80" />
    <vehicle id="veh_8" type="hatchback" route="south_to_west" depart="3" color="1.00,1.00,1.00" />
    <vehicle id="veh_9" type="hatchback" route="west_to_south" depart="3" color="0.00,0.50,0.00" />
    <vehicle id="veh_10" type="van" route="east_to_south" depart="4" color="0.00,0.00,0.00" />
    <vehicle id="veh_11" type="van" route="west_to_north" depart="4" color="0.75,0.75,0.75" />
    <vehicle id="veh_12" type="hatchback" route="south_to_north" depart="5" color="1.00,0.50,0.00" />
    <vehicle id="veh_13" type="van" route="west_to_east" depart="5" color="0.00,0.50,0.00" />
    <vehicle id="veh_14" type="wagon" route="west_to_south" depart="5" color="0.75,0.75,0.75" />
    <vehicle id="veh_15" type="hatchback" route="north_to_east" depart="6" color="0.75,0.75,0.75" />
    <vehicle id="veh_16" type="standard_car" route="west_to_south" depart="7" color="0.75,0.75,0.75" />
    <vehicle id="veh_17" type="hatchback" route="west_to_east" depart="7" color="0.75,0.75,0.75" />
    <vehicle id="veh_18" type="standard_car" route="east_to_north" depart="7" color="0.80,0.00,0.00" />
    <vehicle id="veh_19" type="hatchback" route="south_to_north" depart="8" color="0.60,0.40,0.20" />
    <vehicle id="veh_20" type="van" route="west_to_north" depart="8" color="0.80,0.00,0.00" />
    <vehicle id="veh_21" type="van" route="east_to_north" depart="9" color="0.60,0.40,0.20" />
    <vehicle id="veh_22" type="standard_car" route="east_to_north" depart="9" color="1.00,0.50,0.00" />
    <vehicle id="veh_23" type="van" route="west_to_east" depart="9" color="0.00,0.00,0.00" />
    <vehicle id="veh_24" type="standard_car" route="north_to_west" depart="10" color="0.50,0.00,0.50" />
    <vehicle id="veh_25" type="wagon" route="north_to_west" depart="10" color="0.80,0.00,0.00" />
    <vehicle id="veh_26" type="hatchback" route="north_to_east" depart="10" color="0.75,0.75,0.75" />
    <vehicle id="veh_27" type="hatchback" route="south_to_east" depart="11" color="0.00,0.00,0.00" />
    <vehicle id="veh_28" type="hatchback" route="west_to_north" depart="11" color="1.00,0.50,0.00" />
    <vehicle id="veh_29" type="wagon" route="north_to_east" depart="11" color="0.80,0.00,0.00" />
    <vehicle id="veh_30" type="wagon" route="east_to_south" depart="12" color="0.80,0.00,0.00" />
    <vehicle id="veh_31" type="van" route="west_to_south" depart="12" color="0.00,0.00,0.00" />
    <vehicle id="veh_32" type="standard_car" route="east_to_north" depart="13" color="0.75,0.75,0.75" />
    <vehicle id="veh_33" type="van" route="east_to_west" depart="14" color="1.00,0.80,0.00" />
    <vehicle id="veh_34" type="wagon" route="south_to_west" depart="15" color="0.00,0.50,0.00" />
    <vehicle id="veh_35" type="sedan" route="north_to_east" depart="16" color="0.00,0.50,0.00" />
    <vehicle id="veh_36" type="standard_car" route="east_to_west" depart="16" color="0.60,0.40,0.20" />
    <vehicle id="veh_37" type="wagon" route="east_to_west" depart="16" color="0.50,0.00,0.50" />
    <vehicle id="veh_38" type="hatchback" route="west_to_north" depart="17" color="0.60,0.40,0.20" />
    <vehicle id="veh_39" type="wagon" route="west_to_north" depart="17" color="1.00,0.80,0.00" />
    <vehicle id="veh_40" type="standard_car" route="west_to_east" depart="17" color="1.00,0.80,0.00" />
    <vehicle id="veh_41" type="standard_car" route="east_to_west" depart="18" color="0.60,0.40,0.20" />
    <vehicle id="veh_42" type="standard_car" route="east_to_south" depart="18" color="1.00,0.80,0.00" />
    <vehicle id="veh_43" type="van" route="south_to_west" depart="18" color="1.00,0.80,0.00" />
    <vehicle id="veh_44" type="standard_car" route="west_to_south" depart="19" color="0.00,0.00,0.00" />
    <vehicle id="veh_45" type="wagon" route="south_to_east" depart="19" color="0.75,0.75,0.75" />
    <vehicle id="veh_46" type="hatchback" route="west_to_east" depart="19" color="0.00,0.00,0.00" />
    <vehicle id="veh_47" type="sedan" route="east_to_south" depart="20" color="0.75,0.75,0.75" />
    <vehicle id="veh_48" type="hatchback" route="north_to_east" depart="21" color="1.00,0.80,0.00" />
    <vehicle id="veh_49" type="wagon" route="north_to_east" depart="21" color="0.00,0.00,0.00" />
    <vehicle id="veh_50" type="sedan" route="north_to_south" depart="21" color="0.50,0.00,0.50" />
    <vehicle id="veh_51" type="standard_car" route="west_to_south" depart="22" color="1.00,1.00,1.00" />
    <vehicle id="veh_52" type="hatchback" route="north_to_south" depart="23" color="1.00,1.00,1.00" />
    <vehicle id="veh_53" type="hatchback" route="south_to_west" depart="24" color="0.75,0.75,0.75" />
    <vehicle id="veh_54" type="standard_car" route="south_to_north" depart="25" color="1.00,1.00,1.00" />
    <vehicle id="veh_55" type="hatchback" route="south_to_north" depart="26" color="0.80,0.00,0.00" />
    <vehicle id="veh_56" type="standard_car" route="north_to_west" depart="27" color="0.50,0.00,0.50" />
    <vehicle id="veh_57" type="wagon" route="east_to_west" depart="27" color="1.00,1.00,1.00" />
    <vehicle id="veh_58" type="hatchback" route="east_to_west" depart="28" color="1.00,0.80,0.00" />
    <vehicle id="veh_59" type="hatchback" route="south_to_west" depart="28" color="0.80,0.00,0.00" />
    <vehicle id="veh_60" type="sedan" route="west_to_north" depart="28" color="0.00,0.00,0.00" />
    <vehicle id="veh_61" type="sedan" route="east_to_west" depart="29" color="0.80,0.00,0.00" />
    <vehicle id="veh_62" type="hatchback" route="north_to_south" depart="30" color="0.75,0.75,0.75" />
    <vehicle id="veh_63" type="van" route="north_to_west" depart="31" color="0.50,0.00,0.50" />
    <vehicle id="veh_64" type="hatchback" route="south_to_east" depart="32" color="1.00,0.50,0.00" />
    <vehicle id="veh_65" type="standard_car" route="west_to_north" depart="33" color="0.50,0.00,0.50" />
    <vehicle id="veh_66" type="sedan" route="south_to_east" depart="33" color="1.00,0.50,0.00" />
    <vehicle id="veh_67" type="sedan" route="east_to_south" depart="33" color="0.80,0.00,0.00" />
    <vehicle id="veh_68" type="hatchback" route="east_to_south" depart="34" color="1.00,0.50,0.00" />
    <vehicle id="veh_69" type="van" route="south_to_west" depart="34" color="1.00,1.00,1.00" />
    <vehicle id="veh_70" type="sedan" route="east_to_west" depart="35" color="0.75,0.75,0.75" />
    <vehicle id="veh_71" type="standard_car" route="south_to_north" depart="35" color="0.00,0.00,0.00" />
    <vehicle id="veh_72" type="van" route="north_to_south" depart="36" color="0.60,0.40,0.20" />
    <vehicle id="veh_73" type="standard_car" route="south_to_east" depart="36" color="0.75,0.75,0.75" />
    <vehicle id="veh_74" type="sedan" route="north_to_east" depart="37" color="0.00,0.00,0.00" />
    <vehicle id="veh_75" type="van" route="west_to_east" depart="37" color="0.00,0.00,0.80" />
    <vehicle id="veh_76" type="van" route="east_to_north" depart="38" color="1.00,0.50,0.00" />
    <vehicle id="veh_77" type="wagon" route="south_to_east" depart="38" color="1.00,0.80,0.00" />
    <vehicle id="veh_78" type="wagon" route="west_to_east" depart="38" color="0.00,0.00,0.00" />
    <vehicle id="veh_79" type="sedan" route="east_to_north" depart="39" color="0.75,0.75,0.75" />
    <vehicle id="veh_80" type="van" route="east_to_west" depart="39" color="0.00,0.00,0.00" />
    <vehicle id="veh_81" type="hatchback" route="east_to_north" depart="42" color="0.60,0.40,0.20" />
    <vehicle id="veh_82" type="standard_car" route="west_to_east" depart="43" color="0.00,0.00,0.00" />
    <vehicle id="veh_83" type="van" route="south_to_east" depart="44" color="0.50,0.00,0.50" />
    <vehicle id="veh_84" type="sedan" route="south_to_east" depart="47" color="0.50,0.00,0.50" />
    <vehicle id="veh_85" type="wagon" route="west_to_south" depart="48" color="1.00,0.80,0.00" />
    <vehicle id="veh_86" type="sedan" route="east_to_south" depart="49" color="1.00,0.50,0.00" />
    <vehicle id="veh_87" type="hatchback" route="west_to_south" depart="51" color="0.60,0.40,0.20" />
    <vehicle id="veh_88" type="van" route="west_to_north" depart="53" color="1.00,0.80,0.00" />
    <vehicle id="veh_89" type="van" route="west_to_south" depart="59" color="0.00,0.00,0.00" />
    <vehicle id="veh_90" type="sedan" route="west_to_north" depart="61" color="0.80,0.00,0.00" />
    <vehicle id="veh_91" type="van" route="west_to_south" depart="62" color="0.75,0.75,0.75" />
    <vehicle id="veh_92" type="standard_car" route="west_to_east" depart="63" color="0.00,0.00,0.80" />
    <vehicle id="veh_93" type="van" route="east_to_south" depart="66" color="1.00,1.00,1.00" />
    <vehicle id="veh_94" type="sedan" route="west_to_north" depart="67" color="0.50,0.00,0.50" />
    <vehicle id="veh_95" type="van" route="west_to_east" depart="68" color="1.00,0.80,0.00" />
    <vehicle id="veh_96" type="hatchback" route="south_to_west" depart="69" color="1.00,0.50,0.00" />
    <vehicle id="veh_97" type="van" route="north_to_east" depart="74" color="0.80,0.00,0.00" />
    <vehicle id="veh_98" type="sedan" route="north_to_east" depart="75" color="0.60,0.40,0.20" />
    <vehicle id="veh_99" type="sedan" route="south_to_east" depart="76" color="0.00,0.50,0.00" />
    <vehicle id="veh_100" type="standard_car" route="south_to_north" depart="78" color="0.00,0.00,0.80" />
    <vehicle id="veh_101" type="standard_car" route="west_to_south" depart="80" color="0.00,0.50,0.00" />
    <vehicle id="veh_102" type="sedan" route="west_to_south" depart="81" color="0.60,0.40,0.20" />
    <vehicle id="veh_103" type="sedan" route="north_to_south" depart="82" color="0.75,0.75,0.75" />
    <vehicle id="veh_104" type="wagon" route="north_to_east" depart="85" color="0.75,0.75,0.75" />
    <vehicle id="veh_105" type="standard_car" route="west_to_east" depart="86" color="0.00,0.00,0.00" />
    <vehicle id="veh_106" type="hatchback" route="west_to_north" depart="87" color="0.80,0.00,0.00" />
    <vehicle id="veh_107" type="standard_car" route="east_to_south" depart="88" color="0.60,0.40,0.20" />
    <vehicle id="veh_108" type="sedan" route="west_to_north" depart="89" color="0.80,0.00,0.00" />
    <vehicle id="veh_109" type="hatchback" route="north_to_west" depart="95" color="0.75,0.75,0.75" />
    <vehicle id="veh_110" type="sedan" route="south_to_north" depart="96" color="0.00,0.00,0.00" />
    <vehicle id="veh_111" type="hatchback" route="west_to_north" depart="97" color="0.00,0.00,0.80" />
</routes>
