<?xml version="1.0" encoding="UTF-8"?>

<!-- generated on 2025-01-31 14:45:48 by Eclipse SUMO sumo Version 1.20.0
-->

<configuration xmlns:xsi="http://www.w3.org/2001/XMLSchema-instance" xsi:noNamespaceSchemaLocation="http://sumo.dlr.de/xsd/sumoConfiguration.xsd">

    <input>
        <net-file value="sumonet.net.xml"/>
        <route-files value="sumoconfig.rou.xml"/>
    </input>

</configuration>
